32

C          0.87556       -0.02590       -0.00221
C          2.37481        0.01703       -0.05380
C          3.09622       -1.18557       -0.08887
C          4.48865       -1.16746       -0.13959
O          5.13171       -2.40376       -0.27923
C          6.52387       -2.48985       -0.24884
O          7.09069       -3.52748       -0.58504
C          7.20682       -1.32632        0.40695
C          6.70498        0.02265       -0.10158
C          7.25744        0.42977       -1.46742
P          9.05472        0.59036       -1.50215
O          9.60729        0.96452       -0.16274
O          9.42046       -0.95427       -1.81040
O          9.46143        1.28662       -2.77927
C          5.19871        0.02825       -0.11155
C          4.48293        1.22963       -0.10111
C          3.07763        1.23791       -0.08703
C          2.36020        2.55954       -0.12094
H          0.50253       -1.05500        0.03715
H          0.45036        0.44671       -0.89351
H          0.51250        0.48852        0.89337
H          2.58248       -2.14355       -0.08985
H          8.28744       -1.43224        0.28543
H          7.01614       -1.41628        1.48517
H          7.03462        0.77394        0.62843
H          6.85751        1.41044       -1.75232
H          6.94750       -0.27076       -2.25108
H         10.07573       -0.90315       -2.52805
H          5.03319        2.16784       -0.11773
H          3.06385        3.39803       -0.15204
H          1.74047        2.67979        0.77110
H          1.73381        2.62526       -1.01613
